/*--------------------------------*- C++ -*----------------------------------*\ 
| =========                 |                                                 | 
| \\      /  F ield         | foam-extend: Open Source CFD                    | 
|  \\    /   O peration     | Version:     5.0                                | 
|   \\  /    A nd           | Web:         http://www.foam-extend.org         | 
|    \\/     M anipulation  | For copyright notice see file Copyright         | 
\*---------------------------------------------------------------------------*/ 
FoamFile 
{ 
	version     2.0; 
	format      ascii; 
	class       dictionary; 
	object      blockMeshDict; 
} 
// * * * * * * * * * * * * * * * * * * * * * * * * * * * * * * * * * * * * * // 


convertToMeters 1e-9;



vertices
(
	(0.0 0.0 0.0)
	(0.0 0.087238774730672 1.9980964431637156)
	(0.0 -0.087238774730672 1.9980964431637156)
	(5.744562646538029 0.0 0.0)
	(5.744562646538029 0.087238774730672 1.9980964431637156)
	(5.744562646538029 -0.087238774730672 1.9980964431637156)
	(6.319018911191831 0.0 0.0)
	(6.319018911191831 0.087238774730672 1.9980964431637156)
	(6.319018911191831 -0.087238774730672 1.9980964431637156)
	(12.06358155772986 0.0 0.0)
	(12.06358155772986 0.087238774730672 1.9980964431637156)
	(12.06358155772986 -0.087238774730672 1.9980964431637156)
	(12.638037822383662 0.0 0.0)
	(12.638037822383662 0.087238774730672 1.9980964431637156)
	(12.638037822383662 -0.087238774730672 1.9980964431637156)
);

blocks
(
	hex (0 1 2 0 3 4 5 3) (10 1 10) simpleGrading (1 1 1)
	hex (3 4 5 3 6 7 8 6) (10 1 1) simpleGrading (1 1 1)
	hex (6 7 8 6 9 10 11 9) (10 1 10) simpleGrading (1 1 1)
	hex (9 10 11 9 12 13 14 12) (10 1 1) simpleGrading (1 1 1)
);

edges
(
	arc 1 4 (2.8722813232690143 0.152667855778676 3.4966687755365022)
	arc 2 5 (2.8722813232690143 -0.152667855778676 3.4966687755365022)
	arc 7 10 (9.191300234460845 0.152667855778676 3.4966687755365022)
	arc 8 11 (9.191300234460845 -0.152667855778676 3.4966687755365022)
);

boundary
(
	wall
	{
		type wall;
		faces
		(
			(1 4 5 2)
			(4 7 8 5)
			(7 10 11 8)
			(10 13 14 11)
		);
	}

	front
	{
		type wedge;
		faces
		(
			(0 3 4 1)
			(3 6 7 4)
			(6 9 10 7)
			(9 12 13 10)
		);
	}

	back
	{
		type wedge;
		faces
		(
			(0 2 5 3)
			(3 5 8 6)
			(6 8 11 9)
			(9 11 14 12)
		);
	}

	axis
	{
		type axis;
		faces
		(
			(0 3 3 0)
			(3 6 6 3)
			(6 9 9 6)
			(9 12 12 9)
		);
	}

	top
	{
		type empty;
		faces
		(
			(12 13 14 12)
		);
	}

	bottom
	{
		type empty;
		faces
		(
			(0 1 2 0)
		);
	}

);

mergePatchPairs
(
);
