// -*- C++ -*-
// File generated by PyFoam - sorry for the ugliness

FoamFile
{
 version 2.0;
 format binary;
 class volScalarField;
 location "0";
 object CWater;
}

dimensions [ 0 0 0 0 0 0 0 ];

internalField uniform 0;

boundaryField
{
  top
  {
    type zeroGradient;
  }
  wall
  {
    type outOfEquilibriumPhaseContactAngle; //outOfequilibriumPhaseContactAngle
    thetaProperties
    (
      (water air) 15 0 0 0
    );
    Gamma 2.0e12;
    linearisationMethod none;
    alpha 500 {1.0};
    beta 1;
    limit none;
    value uniform 0; 	//type            zeroGradient;
  }
  bottom
  {
    type zeroGradient;
  }
  axis
  {
    type empty;
  }
  front
  {
    type wedge;
  }
  back
  {
    type wedge;
  }
} 	// ************************************************************************* //

